<?xml version="1.0" encoding="UTF-8"?>

<!-- generated on Sun Jun 13 10:55:15 2021 by Eclipse SUMO duarouter Version v1_7_0+1095-7111e26d53
<configuration xmlns:xsi="http://www.w3.org/2001/XMLSchema-instance" xsi:noNamespaceSchemaLocation="http://sumo.dlr.de/xsd/duarouterConfiguration.xsd">

    <input>
        <net-file value="networks/cross5_LFR_exits.net.xml"/>
        <additional-files value="demands/cyclist.type.xml"/>
        <route-files value="demands/cyclists.rou.xml"/>
    </input>

    <output>
        <output-file value="demands/cyclists.rou.xml.tmp"/>
        <write-trips value="true"/>
    </output>

    <time>
        <begin value="0"/>
        <end value="3600"/>
    </time>

    <report>
        <no-warnings value="true"/>
        <ignore-errors value="true"/>
        <no-step-log value="true"/>
    </report>

</configuration>
-->

<routes xmlns:xsi="http://www.w3.org/2001/XMLSchema-instance" xsi:noNamespaceSchemaLocation="http://sumo.dlr.de/xsd/routes_file.xsd">
    <vType id="cyclist" vClass="bicycle"/>
    <trip id="c2" type="cyclist" depart="10.00" from="WC" to="CS"/>
    <trip id="c5" type="cyclist" depart="15.00" from="NC" to="CW"/>
    <trip id="c12" type="cyclist" depart="46.00" from="SS" to="CN"/>
    <trip id="c16" type="cyclist" depart="83.00" from="SC" to="CE"/>
    <trip id="c17" type="cyclist" depart="87.00" from="NC" to="CS"/>
    <trip id="c21" type="cyclist" depart="107.00" from="EE" to="EC"/>
    <trip id="c23" type="cyclist" depart="108.00" from="SS" to="SC"/>
    <trip id="c25" type="cyclist" depart="117.00" from="NN" to="NC"/>
    <trip id="c28" type="cyclist" depart="138.00" from="EC" to="EC"/>
    <trip id="c31" type="cyclist" depart="151.00" from="EE" to="CN"/>
    <trip id="c33" type="cyclist" depart="160.00" from="EC" to="CN"/>
    <trip id="c36" type="cyclist" depart="171.00" from="NC" to="CW"/>
    <trip id="c42" type="cyclist" depart="205.00" from="EE" to="CN"/>
    <trip id="c46" type="cyclist" depart="224.00" from="WW" to="CE"/>
    <trip id="c50" type="cyclist" depart="265.00" from="EC" to="CN"/>
    <trip id="c57" type="cyclist" depart="292.00" from="EE" to="CN"/>
    <trip id="c60" type="cyclist" depart="309.00" from="WC" to="CE"/>
    <trip id="c64" type="cyclist" depart="320.00" from="EC" to="EC"/>
    <trip id="c69" type="cyclist" depart="349.00" from="WW" to="CE"/>
    <trip id="c70" type="cyclist" depart="357.00" from="WC" to="CS"/>
    <trip id="c73" type="cyclist" depart="382.00" from="NC" to="CS"/>
    <trip id="c75" type="cyclist" depart="386.00" from="NN" to="NC"/>
    <trip id="c76" type="cyclist" depart="386.00" from="SC" to="CE"/>
    <trip id="c77" type="cyclist" depart="409.00" from="WC" to="CE"/>
    <trip id="c78" type="cyclist" depart="411.00" from="EE" to="CW"/>
    <trip id="c79" type="cyclist" depart="411.00" from="EC" to="EC"/>
    <trip id="c80" type="cyclist" depart="418.00" from="SS" to="SC"/>
    <trip id="c82" type="cyclist" depart="426.00" from="NC" to="CS"/>
    <trip id="c83" type="cyclist" depart="429.00" from="NN" to="CS"/>
    <trip id="c87" type="cyclist" depart="458.00" from="WC" to="CE"/>
    <trip id="c94" type="cyclist" depart="501.00" from="EE" to="CN"/>
</routes>
