<?xml version="1.0" encoding="UTF-8"?>
<!-- generated on 2021-03-04 21:49:37.034581 by $Id$ v1_7_0+1095-7111e26d53
  options: -n cross4.net.xml -o demands/pedestrians.rou.xml <doubleminus>pedestrians <doubleminus>max-distance 100 <doubleminus>period 5
-->
<routes xmlns:xsi="http://www.w3.org/2001/XMLSchema-instance" xsi:noNamespaceSchemaLocation="http://sumo.dlr.de/xsd/routes_file.xsd">
    <person id="0" depart="0.00">
        <walk from="CW" to="CS"/>
    </person>
    <person id="1" depart="5.00">
        <walk from="SC" to="SC"/>
    </person>
    <person id="2" depart="10.00">
        <walk from="WC" to="CN"/>
    </person>
    <person id="3" depart="15.00">
        <walk from="CS" to="NC"/>
    </person>
    <person id="4" depart="20.00">
        <walk from="CE" to="CS"/>
    </person>
    <person id="5" depart="25.00">
        <walk from="EC" to="CN"/>
    </person>
    <person id="6" depart="30.00">
        <walk from="CN" to="CN"/>
    </person>
    <person id="7" depart="35.00">
        <walk from="EC" to="NC"/>
    </person>
    <person id="8" depart="40.00">
        <walk from="WC" to="NC"/>
    </person>
    <person id="9" depart="45.00">
        <walk from="SC" to="CE"/>
    </person>
    <person id="10" depart="50.00">
        <walk from="CS" to="CW"/>
    </person>
    <person id="11" depart="55.00">
        <walk from="CE" to="CS"/>
    </person>
    <person id="12" depart="60.00">
        <walk from="CN" to="CW"/>
    </person>
    <person id="13" depart="65.00">
        <walk from="EC" to="CS"/>
    </person>
    <person id="14" depart="70.00">
        <walk from="NN" to="NN"/>
    </person>
    <person id="15" depart="75.00">
        <walk from="CS" to="SC"/>
    </person>
    <person id="16" depart="80.00">
        <walk from="CN" to="EC"/>
    </person>
    <person id="17" depart="85.00">
        <walk from="CS" to="CE"/>
    </person>
    <person id="18" depart="90.00">
        <walk from="CW" to="CW"/>
    </person>
    <person id="19" depart="95.00">
        <walk from="WC" to="CW"/>
    </person>
    <person id="20" depart="100.00">
        <walk from="CW" to="CS"/>
    </person>
    <person id="21" depart="105.00">
        <walk from="NC" to="CW"/>
    </person>
    <person id="22" depart="110.00">
        <walk from="EC" to="CS"/>
    </person>
    <person id="23" depart="115.00">
        <walk from="CN" to="CE"/>
    </person>
    <person id="24" depart="120.00">
        <walk from="CE" to="EC"/>
    </person>
    <person id="25" depart="125.00">
        <walk from="CE" to="SC"/>
    </person>
    <person id="26" depart="130.00">
        <walk from="WC" to="CW"/>
    </person>
    <person id="27" depart="135.00">
        <walk from="NC" to="CS"/>
    </person>
    <person id="28" depart="140.00">
        <walk from="WC" to="WC"/>
    </person>
    <person id="29" depart="145.00">
        <walk from="CE" to="CW"/>
    </person>
    <person id="30" depart="150.00">
        <walk from="CW" to="CE"/>
    </person>
    <person id="31" depart="155.00">
        <walk from="CW" to="WC"/>
    </person>
    <person id="32" depart="160.00">
        <walk from="CS" to="CW"/>
    </person>
    <person id="33" depart="165.00">
        <walk from="CN" to="CS"/>
    </person>
    <person id="34" depart="170.00">
        <walk from="CS" to="CS"/>
    </person>
    <person id="35" depart="175.00">
        <walk from="CS" to="WC"/>
    </person>
    <person id="36" depart="180.00">
        <walk from="WC" to="CE"/>
    </person>
    <person id="37" depart="185.00">
        <walk from="CS" to="SC"/>
    </person>
    <person id="38" depart="190.00">
        <walk from="CS" to="CN"/>
    </person>
    <person id="39" depart="195.00">
        <walk from="EE" to="EE"/>
    </person>
    <person id="40" depart="200.00">
        <walk from="SC" to="SC"/>
    </person>
    <person id="41" depart="205.00">
        <walk from="EC" to="EC"/>
    </person>
    <person id="42" depart="210.00">
        <walk from="WC" to="CS"/>
    </person>
    <person id="43" depart="215.00">
        <walk from="NC" to="CE"/>
    </person>
    <person id="44" depart="220.00">
        <walk from="WW" to="WW"/>
    </person>
    <person id="45" depart="225.00">
        <walk from="WC" to="CN"/>
    </person>
    <person id="46" depart="230.00">
        <walk from="EC" to="CE"/>
    </person>
    <person id="47" depart="235.00">
        <walk from="EE" to="EE"/>
    </person>
    <person id="48" depart="240.00">
        <walk from="WW" to="WW"/>
    </person>
    <person id="49" depart="245.00">
        <walk from="CN" to="CW"/>
    </person>
    <person id="50" depart="250.00">
        <walk from="NC" to="WC"/>
    </person>
    <person id="51" depart="255.00">
        <walk from="CE" to="CS"/>
    </person>
    <person id="52" depart="260.00">
        <walk from="CS" to="CN"/>
    </person>
    <person id="53" depart="265.00">
        <walk from="WC" to="CS"/>
    </person>
    <person id="54" depart="270.00">
        <walk from="NN" to="NN"/>
    </person>
    <person id="55" depart="275.00">
        <walk from="CS" to="SC"/>
    </person>
    <person id="56" depart="280.00">
        <walk from="CS" to="EC"/>
    </person>
    <person id="57" depart="285.00">
        <walk from="SC" to="CW"/>
    </person>
    <person id="58" depart="290.00">
        <walk from="WW" to="WW"/>
    </person>
    <person id="59" depart="295.00">
        <walk from="CE" to="CS"/>
    </person>
    <person id="60" depart="300.00">
        <walk from="WC" to="WC"/>
    </person>
    <person id="61" depart="305.00">
        <walk from="EC" to="CN"/>
    </person>
    <person id="62" depart="310.00">
        <walk from="WC" to="SC"/>
    </person>
    <person id="63" depart="315.00">
        <walk from="CN" to="CN"/>
    </person>
    <person id="64" depart="320.00">
        <walk from="CN" to="NC"/>
    </person>
    <person id="65" depart="325.00">
        <walk from="SC" to="CS"/>
    </person>
    <person id="66" depart="330.00">
        <walk from="WC" to="CN"/>
    </person>
    <person id="67" depart="335.00">
        <walk from="CE" to="WC"/>
    </person>
    <person id="68" depart="340.00">
        <walk from="WC" to="NC"/>
    </person>
    <person id="69" depart="345.00">
        <walk from="WC" to="NC"/>
    </person>
    <person id="70" depart="350.00">
        <walk from="CN" to="CN"/>
    </person>
    <person id="71" depart="355.00">
        <walk from="CW" to="WC"/>
    </person>
    <person id="72" depart="360.00">
        <walk from="WC" to="CS"/>
    </person>
    <person id="73" depart="365.00">
        <walk from="CS" to="CN"/>
    </person>
    <person id="74" depart="370.00">
        <walk from="CE" to="SC"/>
    </person>
    <person id="75" depart="375.00">
        <walk from="WC" to="WC"/>
    </person>
    <person id="76" depart="380.00">
        <walk from="CE" to="CS"/>
    </person>
    <person id="77" depart="385.00">
        <walk from="CW" to="WC"/>
    </person>
    <person id="78" depart="390.00">
        <walk from="SC" to="CW"/>
    </person>
    <person id="79" depart="395.00">
        <walk from="EC" to="NC"/>
    </person>
    <person id="80" depart="400.00">
        <walk from="CW" to="SC"/>
    </person>
    <person id="81" depart="405.00">
        <walk from="SC" to="SC"/>
    </person>
    <person id="82" depart="410.00">
        <walk from="EC" to="CE"/>
    </person>
    <person id="83" depart="415.00">
        <walk from="CW" to="WC"/>
    </person>
    <person id="84" depart="420.00">
        <walk from="SC" to="CW"/>
    </person>
    <person id="85" depart="425.00">
        <walk from="CW" to="EC"/>
    </person>
    <person id="86" depart="430.00">
        <walk from="EC" to="CW"/>
    </person>
    <person id="87" depart="435.00">
        <walk from="CW" to="NC"/>
    </person>
    <person id="88" depart="440.00">
        <walk from="CE" to="CW"/>
    </person>
    <person id="89" depart="445.00">
        <walk from="CN" to="NC"/>
    </person>
    <person id="90" depart="450.00">
        <walk from="SS" to="SS"/>
    </person>
    <person id="91" depart="455.00">
        <walk from="SC" to="CS"/>
    </person>
    <person id="92" depart="460.00">
        <walk from="CS" to="CE"/>
    </person>
    <person id="93" depart="465.00">
        <walk from="WC" to="CE"/>
    </person>
    <person id="94" depart="470.00">
        <walk from="CS" to="SC"/>
    </person>
    <person id="95" depart="475.00">
        <walk from="SS" to="SS"/>
    </person>
    <person id="96" depart="480.00">
        <walk from="NC" to="CE"/>
    </person>
    <person id="97" depart="485.00">
        <walk from="CS" to="WC"/>
    </person>
    <person id="98" depart="490.00">
        <walk from="WC" to="SC"/>
    </person>
    <person id="99" depart="495.00">
        <walk from="CE" to="CW"/>
    </person>
    <person id="100" depart="500.00">
        <walk from="CW" to="CW"/>
    </person>
</routes>
