<additional>
    <tlLogic id="C" type="static" programID="1" offset="0">
        <phase duration="5" state="gGrrrrrrrrgGrrrrrrrrrrrr" next="6" name="0_bikes_first" />
        <phase duration="30" state="gGgGgrrrrrgGgGgrrrrrrrrr" next="8" name="0_main_no_ped" />
        <phase duration="30" state="gGgGgrrrrrgGgGgrrrrrrGrG" next="9" name="0_main" />
        <phase duration="5" state="rrrrrgGrrrrrrrrgGrrrrrrr" next="10" name="1_bikes_first" />
        <phase duration="30" state="rrrrrgGgGgrrrrrgGgGgrrrr" next="12" name="1_main_no_ped" />
        <phase duration="30" state="rrrrrgGgGgrrrrrgGgGgGrGr" next="13" name="1_main" />
		<phase duration="3" state="gGrrrrrrrrgGrrrrrrrrrrrr" next="1" name="(0, 1)" />
		<phase duration="3" state="gGrrrrrrrrgGrrrrrrrrrrrr" next="2" name="(0, 2)" />
		<phase duration="3" state="yyyyyrrrrryyyyyrrrrrrrrr" next="3" name="(1, 3)" />
		<phase duration="3" state="yyyyyrrrrryyyyyrrrrrrrrr" next="3" name="(2, 3)" />
		<phase duration="3" state="rrrrrgGrrrrrrrrgGrrrrrrr" next="4" name="(3, 4)" />
		<phase duration="3" state="rrrrrgGrrrrrrrrgGrrrrrrr" next="5" name="(3, 5)" />
		<phase duration="3" state="rrrrryyyyyrrrrryyyyyrrrr" next="0" name="(4, 0)" />
		<phase duration="3" state="rrrrryyyyyrrrrryyyyyrrrr" next="0" name="(5, 0)" />
	</tlLogic>
</additional>